
---------- Begin Simulation Statistics ----------
final_tick                                   43662000                       # Number of ticks from beginning of simulation (restored from checkpoints and never reset)
host_inst_rate                                  37081                       # Simulator instruction rate (inst/s)
host_mem_usage                                 711588                       # Number of bytes of host memory used
host_op_rate                                    43078                       # Simulator op (including micro ops) rate (op/s)
host_seconds                                     0.60                       # Real time elapsed on the host
host_tick_rate                               72733849                       # Simulator tick rate (ticks/s)
sim_freq                                 1000000000000                       # Frequency of simulated ticks
sim_insts                                       22253                       # Number of instructions simulated
sim_ops                                         25858                       # Number of ops (including micro ops) simulated
sim_seconds                                  0.000044                       # Number of seconds simulated
sim_ticks                                    43662000                       # Number of ticks simulated
system.cpu.branchPred.BTBCorrect                    0                       # Number of correct BTB predictions (this stat may not work properly.
system.cpu.branchPred.BTBHitPct             34.482109                       # BTB Hit Percentage
system.cpu.branchPred.BTBHits                    1831                       # Number of BTB hits
system.cpu.branchPred.BTBLookups                 5310                       # Number of BTB lookups
system.cpu.branchPred.RASInCorrect                  5                       # Number of incorrect RAS predictions.
system.cpu.branchPred.condIncorrect               773                       # Number of conditional branches incorrect
system.cpu.branchPred.condPredicted              4348                       # Number of conditional branches predicted
system.cpu.branchPred.indirectHits                175                       # Number of indirect target hits.
system.cpu.branchPred.indirectLookups             404                       # Number of indirect predictor lookups.
system.cpu.branchPred.indirectMisses              229                       # Number of indirect misses.
system.cpu.branchPred.lookups                    6544                       # Number of BP lookups
system.cpu.branchPred.usedRAS                     601                       # Number of times the RAS was used to get a target.
system.cpu.branchPredindirectMispredicted          105                       # Number of mispredicted indirect branches.
system.cpu.committedInsts                       22253                       # Number of instructions committed
system.cpu.committedOps                         25858                       # Number of ops (including micro ops) committed
system.cpu.cpi                               3.924145                       # CPI: cycles per instruction
system.cpu.discardedOps                          2260                       # Number of ops (including micro ops) which were discarded before commit
system.cpu.dtb.accesses                             0                       # DTB accesses
system.cpu.dtb.align_faults                         0                       # Number of TLB faults due to alignment restrictions
system.cpu.dtb.domain_faults                        0                       # Number of TLB faults due to domain restrictions
system.cpu.dtb.flush_entries                        0                       # Number of entries that have been flushed from TLB
system.cpu.dtb.flush_tlb                            0                       # Number of times complete TLB was flushed
system.cpu.dtb.flush_tlb_asid                       0                       # Number of times TLB was flushed by ASID
system.cpu.dtb.flush_tlb_mva                        0                       # Number of times TLB was flushed by MVA
system.cpu.dtb.flush_tlb_mva_asid                   0                       # Number of times TLB was flushed by MVA & ASID
system.cpu.dtb.hits                                 0                       # DTB hits
system.cpu.dtb.inst_accesses                        0                       # ITB inst accesses
system.cpu.dtb.inst_hits                            0                       # ITB inst hits
system.cpu.dtb.inst_misses                          0                       # ITB inst misses
system.cpu.dtb.misses                               0                       # DTB misses
system.cpu.dtb.perms_faults                         0                       # Number of TLB faults due to permissions restrictions
system.cpu.dtb.prefetch_faults                      0                       # Number of TLB faults due to prefetch
system.cpu.dtb.read_accesses                        0                       # DTB read accesses
system.cpu.dtb.read_hits                            0                       # DTB read hits
system.cpu.dtb.read_misses                          0                       # DTB read misses
system.cpu.dtb.stage2_mmu.stage2_tlb.accesses            0                       # DTB accesses
system.cpu.dtb.stage2_mmu.stage2_tlb.align_faults            0                       # Number of TLB faults due to alignment restrictions
system.cpu.dtb.stage2_mmu.stage2_tlb.domain_faults            0                       # Number of TLB faults due to domain restrictions
system.cpu.dtb.stage2_mmu.stage2_tlb.flush_entries            0                       # Number of entries that have been flushed from TLB
system.cpu.dtb.stage2_mmu.stage2_tlb.flush_tlb            0                       # Number of times complete TLB was flushed
system.cpu.dtb.stage2_mmu.stage2_tlb.flush_tlb_asid            0                       # Number of times TLB was flushed by ASID
system.cpu.dtb.stage2_mmu.stage2_tlb.flush_tlb_mva            0                       # Number of times TLB was flushed by MVA
system.cpu.dtb.stage2_mmu.stage2_tlb.flush_tlb_mva_asid            0                       # Number of times TLB was flushed by MVA & ASID
system.cpu.dtb.stage2_mmu.stage2_tlb.hits            0                       # DTB hits
system.cpu.dtb.stage2_mmu.stage2_tlb.inst_accesses            0                       # ITB inst accesses
system.cpu.dtb.stage2_mmu.stage2_tlb.inst_hits            0                       # ITB inst hits
system.cpu.dtb.stage2_mmu.stage2_tlb.inst_misses            0                       # ITB inst misses
system.cpu.dtb.stage2_mmu.stage2_tlb.misses            0                       # DTB misses
system.cpu.dtb.stage2_mmu.stage2_tlb.perms_faults            0                       # Number of TLB faults due to permissions restrictions
system.cpu.dtb.stage2_mmu.stage2_tlb.prefetch_faults            0                       # Number of TLB faults due to prefetch
system.cpu.dtb.stage2_mmu.stage2_tlb.read_accesses            0                       # DTB read accesses
system.cpu.dtb.stage2_mmu.stage2_tlb.read_hits            0                       # DTB read hits
system.cpu.dtb.stage2_mmu.stage2_tlb.read_misses            0                       # DTB read misses
system.cpu.dtb.stage2_mmu.stage2_tlb.walker.walkRequestOrigin_Requested::Data            0                       # Table walker requests started/completed, data/inst
system.cpu.dtb.stage2_mmu.stage2_tlb.walker.walkRequestOrigin_Requested::Inst            0                       # Table walker requests started/completed, data/inst
system.cpu.dtb.stage2_mmu.stage2_tlb.walker.walkRequestOrigin_Requested::total            0                       # Table walker requests started/completed, data/inst
system.cpu.dtb.stage2_mmu.stage2_tlb.walker.walkRequestOrigin_Completed::Data            0                       # Table walker requests started/completed, data/inst
system.cpu.dtb.stage2_mmu.stage2_tlb.walker.walkRequestOrigin_Completed::Inst            0                       # Table walker requests started/completed, data/inst
system.cpu.dtb.stage2_mmu.stage2_tlb.walker.walkRequestOrigin_Completed::total            0                       # Table walker requests started/completed, data/inst
system.cpu.dtb.stage2_mmu.stage2_tlb.walker.walkRequestOrigin::total            0                       # Table walker requests started/completed, data/inst
system.cpu.dtb.stage2_mmu.stage2_tlb.walker.walks            0                       # Table walker walks requested
system.cpu.dtb.stage2_mmu.stage2_tlb.write_accesses            0                       # DTB write accesses
system.cpu.dtb.stage2_mmu.stage2_tlb.write_hits            0                       # DTB write hits
system.cpu.dtb.stage2_mmu.stage2_tlb.write_misses            0                       # DTB write misses
system.cpu.dtb.walker.walkRequestOrigin_Requested::Data            0                       # Table walker requests started/completed, data/inst
system.cpu.dtb.walker.walkRequestOrigin_Requested::Inst            0                       # Table walker requests started/completed, data/inst
system.cpu.dtb.walker.walkRequestOrigin_Requested::total            0                       # Table walker requests started/completed, data/inst
system.cpu.dtb.walker.walkRequestOrigin_Completed::Data            0                       # Table walker requests started/completed, data/inst
system.cpu.dtb.walker.walkRequestOrigin_Completed::Inst            0                       # Table walker requests started/completed, data/inst
system.cpu.dtb.walker.walkRequestOrigin_Completed::total            0                       # Table walker requests started/completed, data/inst
system.cpu.dtb.walker.walkRequestOrigin::total            0                       # Table walker requests started/completed, data/inst
system.cpu.dtb.walker.walks                         0                       # Table walker walks requested
system.cpu.dtb.write_accesses                       0                       # DTB write accesses
system.cpu.dtb.write_hits                           0                       # DTB write hits
system.cpu.dtb.write_misses                         0                       # DTB write misses
system.cpu.fetch2.amo_instructions                  0                       # Number of memory atomic instructions successfully decoded
system.cpu.fetch2.fp_instructions                   0                       # Number of floating point instructions successfully decoded
system.cpu.fetch2.int_instructions              17710                       # Number of integer instructions successfully decoded
system.cpu.fetch2.load_instructions              4208                       # Number of memory load instructions successfully decoded
system.cpu.fetch2.store_instructions             2090                       # Number of memory store instructions successfully decoded
system.cpu.fetch2.vec_instructions                  0                       # Number of SIMD instructions successfully decoded
system.cpu.idleCycles                           53159                       # Total number of cycles that the object has spent stopped
system.cpu.ipc                               0.254833                       # IPC: instructions per cycle
system.cpu.itb.accesses                             0                       # DTB accesses
system.cpu.itb.align_faults                         0                       # Number of TLB faults due to alignment restrictions
system.cpu.itb.domain_faults                        0                       # Number of TLB faults due to domain restrictions
system.cpu.itb.flush_entries                        0                       # Number of entries that have been flushed from TLB
system.cpu.itb.flush_tlb                            0                       # Number of times complete TLB was flushed
system.cpu.itb.flush_tlb_asid                       0                       # Number of times TLB was flushed by ASID
system.cpu.itb.flush_tlb_mva                        0                       # Number of times TLB was flushed by MVA
system.cpu.itb.flush_tlb_mva_asid                   0                       # Number of times TLB was flushed by MVA & ASID
system.cpu.itb.hits                                 0                       # DTB hits
system.cpu.itb.inst_accesses                        0                       # ITB inst accesses
system.cpu.itb.inst_hits                            0                       # ITB inst hits
system.cpu.itb.inst_misses                          0                       # ITB inst misses
system.cpu.itb.misses                               0                       # DTB misses
system.cpu.itb.perms_faults                         0                       # Number of TLB faults due to permissions restrictions
system.cpu.itb.prefetch_faults                      0                       # Number of TLB faults due to prefetch
system.cpu.itb.read_accesses                        0                       # DTB read accesses
system.cpu.itb.read_hits                            0                       # DTB read hits
system.cpu.itb.read_misses                          0                       # DTB read misses
system.cpu.itb.stage2_mmu.stage2_tlb.accesses            0                       # DTB accesses
system.cpu.itb.stage2_mmu.stage2_tlb.align_faults            0                       # Number of TLB faults due to alignment restrictions
system.cpu.itb.stage2_mmu.stage2_tlb.domain_faults            0                       # Number of TLB faults due to domain restrictions
system.cpu.itb.stage2_mmu.stage2_tlb.flush_entries            0                       # Number of entries that have been flushed from TLB
system.cpu.itb.stage2_mmu.stage2_tlb.flush_tlb            0                       # Number of times complete TLB was flushed
system.cpu.itb.stage2_mmu.stage2_tlb.flush_tlb_asid            0                       # Number of times TLB was flushed by ASID
system.cpu.itb.stage2_mmu.stage2_tlb.flush_tlb_mva            0                       # Number of times TLB was flushed by MVA
system.cpu.itb.stage2_mmu.stage2_tlb.flush_tlb_mva_asid            0                       # Number of times TLB was flushed by MVA & ASID
system.cpu.itb.stage2_mmu.stage2_tlb.hits            0                       # DTB hits
system.cpu.itb.stage2_mmu.stage2_tlb.inst_accesses            0                       # ITB inst accesses
system.cpu.itb.stage2_mmu.stage2_tlb.inst_hits            0                       # ITB inst hits
system.cpu.itb.stage2_mmu.stage2_tlb.inst_misses            0                       # ITB inst misses
system.cpu.itb.stage2_mmu.stage2_tlb.misses            0                       # DTB misses
system.cpu.itb.stage2_mmu.stage2_tlb.perms_faults            0                       # Number of TLB faults due to permissions restrictions
system.cpu.itb.stage2_mmu.stage2_tlb.prefetch_faults            0                       # Number of TLB faults due to prefetch
system.cpu.itb.stage2_mmu.stage2_tlb.read_accesses            0                       # DTB read accesses
system.cpu.itb.stage2_mmu.stage2_tlb.read_hits            0                       # DTB read hits
system.cpu.itb.stage2_mmu.stage2_tlb.read_misses            0                       # DTB read misses
system.cpu.itb.stage2_mmu.stage2_tlb.walker.walkRequestOrigin_Requested::Data            0                       # Table walker requests started/completed, data/inst
system.cpu.itb.stage2_mmu.stage2_tlb.walker.walkRequestOrigin_Requested::Inst            0                       # Table walker requests started/completed, data/inst
system.cpu.itb.stage2_mmu.stage2_tlb.walker.walkRequestOrigin_Requested::total            0                       # Table walker requests started/completed, data/inst
system.cpu.itb.stage2_mmu.stage2_tlb.walker.walkRequestOrigin_Completed::Data            0                       # Table walker requests started/completed, data/inst
system.cpu.itb.stage2_mmu.stage2_tlb.walker.walkRequestOrigin_Completed::Inst            0                       # Table walker requests started/completed, data/inst
system.cpu.itb.stage2_mmu.stage2_tlb.walker.walkRequestOrigin_Completed::total            0                       # Table walker requests started/completed, data/inst
system.cpu.itb.stage2_mmu.stage2_tlb.walker.walkRequestOrigin::total            0                       # Table walker requests started/completed, data/inst
system.cpu.itb.stage2_mmu.stage2_tlb.walker.walks            0                       # Table walker walks requested
system.cpu.itb.stage2_mmu.stage2_tlb.write_accesses            0                       # DTB write accesses
system.cpu.itb.stage2_mmu.stage2_tlb.write_hits            0                       # DTB write hits
system.cpu.itb.stage2_mmu.stage2_tlb.write_misses            0                       # DTB write misses
system.cpu.itb.walker.walkRequestOrigin_Requested::Data            0                       # Table walker requests started/completed, data/inst
system.cpu.itb.walker.walkRequestOrigin_Requested::Inst            0                       # Table walker requests started/completed, data/inst
system.cpu.itb.walker.walkRequestOrigin_Requested::total            0                       # Table walker requests started/completed, data/inst
system.cpu.itb.walker.walkRequestOrigin_Completed::Data            0                       # Table walker requests started/completed, data/inst
system.cpu.itb.walker.walkRequestOrigin_Completed::Inst            0                       # Table walker requests started/completed, data/inst
system.cpu.itb.walker.walkRequestOrigin_Completed::total            0                       # Table walker requests started/completed, data/inst
system.cpu.itb.walker.walkRequestOrigin::total            0                       # Table walker requests started/completed, data/inst
system.cpu.itb.walker.walks                         0                       # Table walker walks requested
system.cpu.itb.write_accesses                       0                       # DTB write accesses
system.cpu.itb.write_hits                           0                       # DTB write hits
system.cpu.itb.write_misses                         0                       # DTB write misses
system.cpu.numCycles                            87324                       # number of cpu cycles simulated
system.cpu.numFetchSuspends                         0                       # Number of times Execute suspended instruction fetching
system.cpu.numWorkItemsCompleted                    0                       # number of work items this cpu completed
system.cpu.numWorkItemsStarted                      0                       # number of work items this cpu started
system.cpu.op_class_0::No_OpClass                   0      0.00%      0.00% # Class of committed instruction
system.cpu.op_class_0::IntAlu                   17906     69.25%     69.25% # Class of committed instruction
system.cpu.op_class_0::IntMult                    153      0.59%     69.84% # Class of committed instruction
system.cpu.op_class_0::IntDiv                       0      0.00%     69.84% # Class of committed instruction
system.cpu.op_class_0::FloatAdd                     0      0.00%     69.84% # Class of committed instruction
system.cpu.op_class_0::FloatCmp                     0      0.00%     69.84% # Class of committed instruction
system.cpu.op_class_0::FloatCvt                     0      0.00%     69.84% # Class of committed instruction
system.cpu.op_class_0::FloatMult                    0      0.00%     69.84% # Class of committed instruction
system.cpu.op_class_0::FloatMultAcc                 0      0.00%     69.84% # Class of committed instruction
system.cpu.op_class_0::FloatDiv                     0      0.00%     69.84% # Class of committed instruction
system.cpu.op_class_0::FloatMisc                    0      0.00%     69.84% # Class of committed instruction
system.cpu.op_class_0::FloatSqrt                    0      0.00%     69.84% # Class of committed instruction
system.cpu.op_class_0::SimdAdd                      0      0.00%     69.84% # Class of committed instruction
system.cpu.op_class_0::SimdAddAcc                   0      0.00%     69.84% # Class of committed instruction
system.cpu.op_class_0::SimdAlu                      0      0.00%     69.84% # Class of committed instruction
system.cpu.op_class_0::SimdCmp                      0      0.00%     69.84% # Class of committed instruction
system.cpu.op_class_0::SimdCvt                      0      0.00%     69.84% # Class of committed instruction
system.cpu.op_class_0::SimdMisc                     0      0.00%     69.84% # Class of committed instruction
system.cpu.op_class_0::SimdMult                     0      0.00%     69.84% # Class of committed instruction
system.cpu.op_class_0::SimdMultAcc                  0      0.00%     69.84% # Class of committed instruction
system.cpu.op_class_0::SimdShift                    0      0.00%     69.84% # Class of committed instruction
system.cpu.op_class_0::SimdShiftAcc                 0      0.00%     69.84% # Class of committed instruction
system.cpu.op_class_0::SimdDiv                      0      0.00%     69.84% # Class of committed instruction
system.cpu.op_class_0::SimdSqrt                     0      0.00%     69.84% # Class of committed instruction
system.cpu.op_class_0::SimdFloatAdd                 0      0.00%     69.84% # Class of committed instruction
system.cpu.op_class_0::SimdFloatAlu                 0      0.00%     69.84% # Class of committed instruction
system.cpu.op_class_0::SimdFloatCmp                 0      0.00%     69.84% # Class of committed instruction
system.cpu.op_class_0::SimdFloatCvt                 0      0.00%     69.84% # Class of committed instruction
system.cpu.op_class_0::SimdFloatDiv                 0      0.00%     69.84% # Class of committed instruction
system.cpu.op_class_0::SimdFloatMisc                0      0.00%     69.84% # Class of committed instruction
system.cpu.op_class_0::SimdFloatMult                0      0.00%     69.84% # Class of committed instruction
system.cpu.op_class_0::SimdFloatMultAcc             0      0.00%     69.84% # Class of committed instruction
system.cpu.op_class_0::SimdFloatSqrt                0      0.00%     69.84% # Class of committed instruction
system.cpu.op_class_0::SimdReduceAdd                0      0.00%     69.84% # Class of committed instruction
system.cpu.op_class_0::SimdReduceAlu                0      0.00%     69.84% # Class of committed instruction
system.cpu.op_class_0::SimdReduceCmp                0      0.00%     69.84% # Class of committed instruction
system.cpu.op_class_0::SimdFloatReduceAdd            0      0.00%     69.84% # Class of committed instruction
system.cpu.op_class_0::SimdFloatReduceCmp            0      0.00%     69.84% # Class of committed instruction
system.cpu.op_class_0::SimdAes                      0      0.00%     69.84% # Class of committed instruction
system.cpu.op_class_0::SimdAesMix                   0      0.00%     69.84% # Class of committed instruction
system.cpu.op_class_0::SimdSha1Hash                 0      0.00%     69.84% # Class of committed instruction
system.cpu.op_class_0::SimdSha1Hash2                0      0.00%     69.84% # Class of committed instruction
system.cpu.op_class_0::SimdSha256Hash               0      0.00%     69.84% # Class of committed instruction
system.cpu.op_class_0::SimdSha256Hash2              0      0.00%     69.84% # Class of committed instruction
system.cpu.op_class_0::SimdShaSigma2                0      0.00%     69.84% # Class of committed instruction
system.cpu.op_class_0::SimdShaSigma3                0      0.00%     69.84% # Class of committed instruction
system.cpu.op_class_0::SimdPredAlu                  0      0.00%     69.84% # Class of committed instruction
system.cpu.op_class_0::MemRead                   4219     16.32%     86.16% # Class of committed instruction
system.cpu.op_class_0::MemWrite                  3580     13.84%    100.00% # Class of committed instruction
system.cpu.op_class_0::FloatMemRead                 0      0.00%    100.00% # Class of committed instruction
system.cpu.op_class_0::FloatMemWrite                0      0.00%    100.00% # Class of committed instruction
system.cpu.op_class_0::IprAccess                    0      0.00%    100.00% # Class of committed instruction
system.cpu.op_class_0::InstPrefetch                 0      0.00%    100.00% # Class of committed instruction
system.cpu.op_class_0::total                    25858                       # Class of committed instruction
system.cpu.tickCycles                           34165                       # Number of cycles that the object actually ticked
system.cpu.workload.numSyscalls                    21                       # Number of system calls
system.membus.snoop_filter.hit_multi_requests            2                       # Number of requests hitting in the snoop filter with multiple (>1) holders of the requested data.
system.membus.snoop_filter.hit_multi_snoops            0                       # Number of snoops hitting in the snoop filter with multiple (>1) holders of the requested data.
system.membus.snoop_filter.hit_single_requests          113                       # Number of requests hitting in the snoop filter with a single holder of the requested data.
system.membus.snoop_filter.hit_single_snoops            0                       # Number of snoops hitting in the snoop filter with a single holder of the requested data.
system.membus.snoop_filter.tot_requests           686                       # Total number of requests made to the snoop filter.
system.membus.snoop_filter.tot_snoops               0                       # Total number of snoops made to the snoop filter.
system.membus.pwrStateResidencyTicks::UNDEFINED     43662000                       # Cumulative time (in ticks) in various power states
system.membus.trans_dist::ReadResp                523                       # Transaction distribution
system.membus.trans_dist::WritebackClean           95                       # Transaction distribution
system.membus.trans_dist::ReadExReq                68                       # Transaction distribution
system.membus.trans_dist::ReadExResp               68                       # Transaction distribution
system.membus.trans_dist::ReadCleanReq            431                       # Transaction distribution
system.membus.trans_dist::ReadSharedReq            92                       # Transaction distribution
system.membus.pkt_count_system.cpu.icache.mem_side::system.mem_ctrls.port          957                       # Packet count per connected master and slave (bytes)
system.membus.pkt_count_system.cpu.dcache.mem_side::system.mem_ctrls.port          320                       # Packet count per connected master and slave (bytes)
system.membus.pkt_count::total                   1277                       # Packet count per connected master and slave (bytes)
system.membus.pkt_size_system.cpu.icache.mem_side::system.mem_ctrls.port        33664                       # Cumulative packet size per connected master and slave (bytes)
system.membus.pkt_size_system.cpu.dcache.mem_side::system.mem_ctrls.port        10240                       # Cumulative packet size per connected master and slave (bytes)
system.membus.pkt_size::total                   43904                       # Cumulative packet size per connected master and slave (bytes)
system.membus.snoops                                0                       # Total snoops (count)
system.membus.snoopTraffic                          0                       # Total snoop traffic (bytes)
system.membus.snoop_fanout::samples               591                       # Request fanout histogram
system.membus.snoop_fanout::mean             0.033841                       # Request fanout histogram
system.membus.snoop_fanout::stdev            0.180973                       # Request fanout histogram
system.membus.snoop_fanout::underflows              0      0.00%      0.00% # Request fanout histogram
system.membus.snoop_fanout::0                     571     96.62%     96.62% # Request fanout histogram
system.membus.snoop_fanout::1                      20      3.38%    100.00% # Request fanout histogram
system.membus.snoop_fanout::2                       0      0.00%    100.00% # Request fanout histogram
system.membus.snoop_fanout::overflows               0      0.00%    100.00% # Request fanout histogram
system.membus.snoop_fanout::min_value               0                       # Request fanout histogram
system.membus.snoop_fanout::max_value               1                       # Request fanout histogram
system.membus.snoop_fanout::total                 591                       # Request fanout histogram
system.membus.reqLayer0.occupancy             1168500                       # Layer occupancy (ticks)
system.membus.reqLayer0.utilization               2.7                       # Layer utilization (%)
system.membus.respLayer1.occupancy            2286000                       # Layer occupancy (ticks)
system.membus.respLayer1.utilization              5.2                       # Layer utilization (%)
system.membus.respLayer2.occupancy             860500                       # Layer occupancy (ticks)
system.membus.respLayer2.utilization              2.0                       # Layer utilization (%)
system.voltage_domain.voltage                       1                       # Voltage in Volts
system.clk_domain.clock                          1000                       # Clock period in ticks
system.cpu_voltage_domain.voltage                   1                       # Voltage in Volts
system.mem_ctrls.pwrStateResidencyTicks::UNDEFINED     43662000                       # Cumulative time (in ticks) in various power states
system.mem_ctrls.bytes_read::.cpu.inst          27584                       # Number of bytes read from this memory
system.mem_ctrls.bytes_read::.cpu.data          10240                       # Number of bytes read from this memory
system.mem_ctrls.bytes_read::total              37824                       # Number of bytes read from this memory
system.mem_ctrls.bytes_inst_read::.cpu.inst        27584                       # Number of instructions bytes read from this memory
system.mem_ctrls.bytes_inst_read::total         27584                       # Number of instructions bytes read from this memory
system.mem_ctrls.num_reads::.cpu.inst             431                       # Number of read requests responded to by this memory
system.mem_ctrls.num_reads::.cpu.data             160                       # Number of read requests responded to by this memory
system.mem_ctrls.num_reads::total                 591                       # Number of read requests responded to by this memory
system.mem_ctrls.bw_read::.cpu.inst         631762173                       # Total read bandwidth from this memory (bytes/s)
system.mem_ctrls.bw_read::.cpu.data         234528881                       # Total read bandwidth from this memory (bytes/s)
system.mem_ctrls.bw_read::total             866291054                       # Total read bandwidth from this memory (bytes/s)
system.mem_ctrls.bw_inst_read::.cpu.inst    631762173                       # Instruction read bandwidth from this memory (bytes/s)
system.mem_ctrls.bw_inst_read::total        631762173                       # Instruction read bandwidth from this memory (bytes/s)
system.mem_ctrls.bw_total::.cpu.inst        631762173                       # Total bandwidth to/from this memory (bytes/s)
system.mem_ctrls.bw_total::.cpu.data        234528881                       # Total bandwidth to/from this memory (bytes/s)
system.mem_ctrls.bw_total::total            866291054                       # Total bandwidth to/from this memory (bytes/s)
system.mem_ctrls.avgPriority_.writebacks::samples        93.00                       # Average QoS priority value for accepted requests
system.mem_ctrls.avgPriority_.cpu.inst::samples       420.00                       # Average QoS priority value for accepted requests
system.mem_ctrls.avgPriority_.cpu.data::samples       160.00                       # Average QoS priority value for accepted requests
system.mem_ctrls.priorityMinLatency      0.000000018750                       # per QoS priority minimum request to response latency (s)
system.mem_ctrls.priorityMaxLatency      0.000039758500                       # per QoS priority maximum request to response latency (s)
system.mem_ctrls.numReadWriteTurnArounds            4                       # Number of turnarounds from READ to WRITE
system.mem_ctrls.numWriteReadTurnArounds            4                       # Number of turnarounds from WRITE to READ
system.mem_ctrls.numStayReadState                1253                       # Number of times bus staying in READ state
system.mem_ctrls.numStayWriteState                 60                       # Number of times bus staying in WRITE state
system.mem_ctrls.readReqs                         591                       # Number of read requests accepted
system.mem_ctrls.writeReqs                         93                       # Number of write requests accepted
system.mem_ctrls.readBursts                       591                       # Number of DRAM read bursts, including those serviced by the write queue
system.mem_ctrls.writeBursts                       93                       # Number of DRAM write bursts, including those merged in the write queue
system.mem_ctrls.servicedByWrQ                     11                       # Number of DRAM read bursts serviced by the write queue
system.mem_ctrls.mergedWrBursts                     0                       # Number of DRAM write bursts merged with an existing one
system.mem_ctrls.neitherReadNorWriteReqs            0                       # Number of requests that are neither read nor write
system.mem_ctrls.perBankRdBursts::0                42                       # Per bank write bursts
system.mem_ctrls.perBankRdBursts::1                 3                       # Per bank write bursts
system.mem_ctrls.perBankRdBursts::2                27                       # Per bank write bursts
system.mem_ctrls.perBankRdBursts::3                41                       # Per bank write bursts
system.mem_ctrls.perBankRdBursts::4                47                       # Per bank write bursts
system.mem_ctrls.perBankRdBursts::5                56                       # Per bank write bursts
system.mem_ctrls.perBankRdBursts::6                39                       # Per bank write bursts
system.mem_ctrls.perBankRdBursts::7               108                       # Per bank write bursts
system.mem_ctrls.perBankRdBursts::8                53                       # Per bank write bursts
system.mem_ctrls.perBankRdBursts::9                77                       # Per bank write bursts
system.mem_ctrls.perBankRdBursts::10                5                       # Per bank write bursts
system.mem_ctrls.perBankRdBursts::11               13                       # Per bank write bursts
system.mem_ctrls.perBankRdBursts::12                4                       # Per bank write bursts
system.mem_ctrls.perBankRdBursts::13               17                       # Per bank write bursts
system.mem_ctrls.perBankRdBursts::14                5                       # Per bank write bursts
system.mem_ctrls.perBankRdBursts::15               43                       # Per bank write bursts
system.mem_ctrls.perBankWrBursts::0                11                       # Per bank write bursts
system.mem_ctrls.perBankWrBursts::1                 1                       # Per bank write bursts
system.mem_ctrls.perBankWrBursts::2                 4                       # Per bank write bursts
system.mem_ctrls.perBankWrBursts::3                 0                       # Per bank write bursts
system.mem_ctrls.perBankWrBursts::4                 2                       # Per bank write bursts
system.mem_ctrls.perBankWrBursts::5                12                       # Per bank write bursts
system.mem_ctrls.perBankWrBursts::6                 6                       # Per bank write bursts
system.mem_ctrls.perBankWrBursts::7                12                       # Per bank write bursts
system.mem_ctrls.perBankWrBursts::8                 4                       # Per bank write bursts
system.mem_ctrls.perBankWrBursts::9                 9                       # Per bank write bursts
system.mem_ctrls.perBankWrBursts::10                0                       # Per bank write bursts
system.mem_ctrls.perBankWrBursts::11                3                       # Per bank write bursts
system.mem_ctrls.perBankWrBursts::12                0                       # Per bank write bursts
system.mem_ctrls.perBankWrBursts::13                0                       # Per bank write bursts
system.mem_ctrls.perBankWrBursts::14                0                       # Per bank write bursts
system.mem_ctrls.perBankWrBursts::15                0                       # Per bank write bursts
system.mem_ctrls.avgRdQLen                       1.13                       # Average read queue length when enqueuing
system.mem_ctrls.avgWrQLen                      15.68                       # Average write queue length when enqueuing
system.mem_ctrls.totQLat                      3999000                       # Total ticks spent queuing
system.mem_ctrls.totBusLat                    2900000                       # Total ticks spent in databus transfers
system.mem_ctrls.totMemAccLat                14874000                       # Total ticks spent from burst creation until serviced by the DRAM
system.mem_ctrls.avgQLat                      6894.83                       # Average queueing delay per DRAM burst
system.mem_ctrls.avgBusLat                    5000.00                       # Average bus latency per DRAM burst
system.mem_ctrls.avgMemAccLat                25644.83                       # Average memory access latency per DRAM burst
system.mem_ctrls.numRdRetry                         0                       # Number of times read queue was full causing retry
system.mem_ctrls.numWrRetry                         0                       # Number of times write queue was full causing retry
system.mem_ctrls.readRowHits                      467                       # Number of row buffer hits during reads
system.mem_ctrls.writeRowHits                      53                       # Number of row buffer hits during writes
system.mem_ctrls.readRowHitRate                 80.52                       # Row buffer hit rate for reads
system.mem_ctrls.writeRowHitRate                56.99                       # Row buffer hit rate for writes
system.mem_ctrls.readPktSize::0                     0                       # Read request sizes (log2)
system.mem_ctrls.readPktSize::1                     0                       # Read request sizes (log2)
system.mem_ctrls.readPktSize::2                     0                       # Read request sizes (log2)
system.mem_ctrls.readPktSize::3                     0                       # Read request sizes (log2)
system.mem_ctrls.readPktSize::4                     0                       # Read request sizes (log2)
system.mem_ctrls.readPktSize::5                     0                       # Read request sizes (log2)
system.mem_ctrls.readPktSize::6                   591                       # Read request sizes (log2)
system.mem_ctrls.writePktSize::0                    0                       # Write request sizes (log2)
system.mem_ctrls.writePktSize::1                    0                       # Write request sizes (log2)
system.mem_ctrls.writePktSize::2                    0                       # Write request sizes (log2)
system.mem_ctrls.writePktSize::3                    0                       # Write request sizes (log2)
system.mem_ctrls.writePktSize::4                    0                       # Write request sizes (log2)
system.mem_ctrls.writePktSize::5                    0                       # Write request sizes (log2)
system.mem_ctrls.writePktSize::6                   93                       # Write request sizes (log2)
system.mem_ctrls.rdQLenPdf::0                     493                       # What read queue length does an incoming req see
system.mem_ctrls.rdQLenPdf::1                      82                       # What read queue length does an incoming req see
system.mem_ctrls.rdQLenPdf::2                       5                       # What read queue length does an incoming req see
system.mem_ctrls.rdQLenPdf::3                       0                       # What read queue length does an incoming req see
system.mem_ctrls.rdQLenPdf::4                       0                       # What read queue length does an incoming req see
system.mem_ctrls.rdQLenPdf::5                       0                       # What read queue length does an incoming req see
system.mem_ctrls.rdQLenPdf::6                       0                       # What read queue length does an incoming req see
system.mem_ctrls.rdQLenPdf::7                       0                       # What read queue length does an incoming req see
system.mem_ctrls.rdQLenPdf::8                       0                       # What read queue length does an incoming req see
system.mem_ctrls.rdQLenPdf::9                       0                       # What read queue length does an incoming req see
system.mem_ctrls.rdQLenPdf::10                      0                       # What read queue length does an incoming req see
system.mem_ctrls.rdQLenPdf::11                      0                       # What read queue length does an incoming req see
system.mem_ctrls.rdQLenPdf::12                      0                       # What read queue length does an incoming req see
system.mem_ctrls.rdQLenPdf::13                      0                       # What read queue length does an incoming req see
system.mem_ctrls.rdQLenPdf::14                      0                       # What read queue length does an incoming req see
system.mem_ctrls.rdQLenPdf::15                      0                       # What read queue length does an incoming req see
system.mem_ctrls.rdQLenPdf::16                      0                       # What read queue length does an incoming req see
system.mem_ctrls.rdQLenPdf::17                      0                       # What read queue length does an incoming req see
system.mem_ctrls.rdQLenPdf::18                      0                       # What read queue length does an incoming req see
system.mem_ctrls.rdQLenPdf::19                      0                       # What read queue length does an incoming req see
system.mem_ctrls.rdQLenPdf::20                      0                       # What read queue length does an incoming req see
system.mem_ctrls.rdQLenPdf::21                      0                       # What read queue length does an incoming req see
system.mem_ctrls.rdQLenPdf::22                      0                       # What read queue length does an incoming req see
system.mem_ctrls.rdQLenPdf::23                      0                       # What read queue length does an incoming req see
system.mem_ctrls.rdQLenPdf::24                      0                       # What read queue length does an incoming req see
system.mem_ctrls.rdQLenPdf::25                      0                       # What read queue length does an incoming req see
system.mem_ctrls.rdQLenPdf::26                      0                       # What read queue length does an incoming req see
system.mem_ctrls.rdQLenPdf::27                      0                       # What read queue length does an incoming req see
system.mem_ctrls.rdQLenPdf::28                      0                       # What read queue length does an incoming req see
system.mem_ctrls.rdQLenPdf::29                      0                       # What read queue length does an incoming req see
system.mem_ctrls.rdQLenPdf::30                      0                       # What read queue length does an incoming req see
system.mem_ctrls.rdQLenPdf::31                      0                       # What read queue length does an incoming req see
system.mem_ctrls.wrQLenPdf::0                       1                       # What write queue length does an incoming req see
system.mem_ctrls.wrQLenPdf::1                       1                       # What write queue length does an incoming req see
system.mem_ctrls.wrQLenPdf::2                       1                       # What write queue length does an incoming req see
system.mem_ctrls.wrQLenPdf::3                       1                       # What write queue length does an incoming req see
system.mem_ctrls.wrQLenPdf::4                       1                       # What write queue length does an incoming req see
system.mem_ctrls.wrQLenPdf::5                       1                       # What write queue length does an incoming req see
system.mem_ctrls.wrQLenPdf::6                       1                       # What write queue length does an incoming req see
system.mem_ctrls.wrQLenPdf::7                       1                       # What write queue length does an incoming req see
system.mem_ctrls.wrQLenPdf::8                       1                       # What write queue length does an incoming req see
system.mem_ctrls.wrQLenPdf::9                       1                       # What write queue length does an incoming req see
system.mem_ctrls.wrQLenPdf::10                      1                       # What write queue length does an incoming req see
system.mem_ctrls.wrQLenPdf::11                      1                       # What write queue length does an incoming req see
system.mem_ctrls.wrQLenPdf::12                      1                       # What write queue length does an incoming req see
system.mem_ctrls.wrQLenPdf::13                      1                       # What write queue length does an incoming req see
system.mem_ctrls.wrQLenPdf::14                      1                       # What write queue length does an incoming req see
system.mem_ctrls.wrQLenPdf::15                      1                       # What write queue length does an incoming req see
system.mem_ctrls.wrQLenPdf::16                      1                       # What write queue length does an incoming req see
system.mem_ctrls.wrQLenPdf::17                      5                       # What write queue length does an incoming req see
system.mem_ctrls.wrQLenPdf::18                      5                       # What write queue length does an incoming req see
system.mem_ctrls.wrQLenPdf::19                      5                       # What write queue length does an incoming req see
system.mem_ctrls.wrQLenPdf::20                      5                       # What write queue length does an incoming req see
system.mem_ctrls.wrQLenPdf::21                      5                       # What write queue length does an incoming req see
system.mem_ctrls.wrQLenPdf::22                      5                       # What write queue length does an incoming req see
system.mem_ctrls.wrQLenPdf::23                      5                       # What write queue length does an incoming req see
system.mem_ctrls.wrQLenPdf::24                      5                       # What write queue length does an incoming req see
system.mem_ctrls.wrQLenPdf::25                      5                       # What write queue length does an incoming req see
system.mem_ctrls.wrQLenPdf::26                      5                       # What write queue length does an incoming req see
system.mem_ctrls.wrQLenPdf::27                      5                       # What write queue length does an incoming req see
system.mem_ctrls.wrQLenPdf::28                      5                       # What write queue length does an incoming req see
system.mem_ctrls.wrQLenPdf::29                      4                       # What write queue length does an incoming req see
system.mem_ctrls.wrQLenPdf::30                      4                       # What write queue length does an incoming req see
system.mem_ctrls.wrQLenPdf::31                      4                       # What write queue length does an incoming req see
system.mem_ctrls.wrQLenPdf::32                      4                       # What write queue length does an incoming req see
system.mem_ctrls.wrQLenPdf::33                      0                       # What write queue length does an incoming req see
system.mem_ctrls.wrQLenPdf::34                      0                       # What write queue length does an incoming req see
system.mem_ctrls.wrQLenPdf::35                      0                       # What write queue length does an incoming req see
system.mem_ctrls.wrQLenPdf::36                      0                       # What write queue length does an incoming req see
system.mem_ctrls.wrQLenPdf::37                      0                       # What write queue length does an incoming req see
system.mem_ctrls.wrQLenPdf::38                      0                       # What write queue length does an incoming req see
system.mem_ctrls.wrQLenPdf::39                      0                       # What write queue length does an incoming req see
system.mem_ctrls.wrQLenPdf::40                      0                       # What write queue length does an incoming req see
system.mem_ctrls.wrQLenPdf::41                      0                       # What write queue length does an incoming req see
system.mem_ctrls.wrQLenPdf::42                      0                       # What write queue length does an incoming req see
system.mem_ctrls.wrQLenPdf::43                      0                       # What write queue length does an incoming req see
system.mem_ctrls.wrQLenPdf::44                      0                       # What write queue length does an incoming req see
system.mem_ctrls.wrQLenPdf::45                      0                       # What write queue length does an incoming req see
system.mem_ctrls.wrQLenPdf::46                      0                       # What write queue length does an incoming req see
system.mem_ctrls.wrQLenPdf::47                      0                       # What write queue length does an incoming req see
system.mem_ctrls.wrQLenPdf::48                      0                       # What write queue length does an incoming req see
system.mem_ctrls.wrQLenPdf::49                      0                       # What write queue length does an incoming req see
system.mem_ctrls.wrQLenPdf::50                      0                       # What write queue length does an incoming req see
system.mem_ctrls.wrQLenPdf::51                      0                       # What write queue length does an incoming req see
system.mem_ctrls.wrQLenPdf::52                      0                       # What write queue length does an incoming req see
system.mem_ctrls.wrQLenPdf::53                      0                       # What write queue length does an incoming req see
system.mem_ctrls.wrQLenPdf::54                      0                       # What write queue length does an incoming req see
system.mem_ctrls.wrQLenPdf::55                      0                       # What write queue length does an incoming req see
system.mem_ctrls.wrQLenPdf::56                      0                       # What write queue length does an incoming req see
system.mem_ctrls.wrQLenPdf::57                      0                       # What write queue length does an incoming req see
system.mem_ctrls.wrQLenPdf::58                      0                       # What write queue length does an incoming req see
system.mem_ctrls.wrQLenPdf::59                      0                       # What write queue length does an incoming req see
system.mem_ctrls.wrQLenPdf::60                      0                       # What write queue length does an incoming req see
system.mem_ctrls.wrQLenPdf::61                      0                       # What write queue length does an incoming req see
system.mem_ctrls.wrQLenPdf::62                      0                       # What write queue length does an incoming req see
system.mem_ctrls.wrQLenPdf::63                      0                       # What write queue length does an incoming req see
system.mem_ctrls.bytesPerActivate::samples          113                       # Bytes accessed per row activation
system.mem_ctrls.bytesPerActivate::mean    339.256637                       # Bytes accessed per row activation
system.mem_ctrls.bytesPerActivate::gmean   228.211168                       # Bytes accessed per row activation
system.mem_ctrls.bytesPerActivate::stdev   306.084278                       # Bytes accessed per row activation
system.mem_ctrls.bytesPerActivate::0-127           25     22.12%     22.12% # Bytes accessed per row activation
system.mem_ctrls.bytesPerActivate::128-255           27     23.89%     46.02% # Bytes accessed per row activation
system.mem_ctrls.bytesPerActivate::256-383           28     24.78%     70.80% # Bytes accessed per row activation
system.mem_ctrls.bytesPerActivate::384-511            8      7.08%     77.88% # Bytes accessed per row activation
system.mem_ctrls.bytesPerActivate::512-639            4      3.54%     81.42% # Bytes accessed per row activation
system.mem_ctrls.bytesPerActivate::640-767            5      4.42%     85.84% # Bytes accessed per row activation
system.mem_ctrls.bytesPerActivate::768-895            2      1.77%     87.61% # Bytes accessed per row activation
system.mem_ctrls.bytesPerActivate::896-1023            3      2.65%     90.27% # Bytes accessed per row activation
system.mem_ctrls.bytesPerActivate::1024-1151           11      9.73%    100.00% # Bytes accessed per row activation
system.mem_ctrls.bytesPerActivate::total          113                       # Bytes accessed per row activation
system.mem_ctrls.rdPerTurnAround::samples            4                       # Reads before turning the bus around for writes
system.mem_ctrls.rdPerTurnAround::mean     131.500000                       # Reads before turning the bus around for writes
system.mem_ctrls.rdPerTurnAround::gmean     79.909446                       # Reads before turning the bus around for writes
system.mem_ctrls.rdPerTurnAround::stdev    164.868635                       # Reads before turning the bus around for writes
system.mem_ctrls.rdPerTurnAround::32-47             2     50.00%     50.00% # Reads before turning the bus around for writes
system.mem_ctrls.rdPerTurnAround::64-79             1     25.00%     75.00% # Reads before turning the bus around for writes
system.mem_ctrls.rdPerTurnAround::368-383            1     25.00%    100.00% # Reads before turning the bus around for writes
system.mem_ctrls.rdPerTurnAround::total             4                       # Reads before turning the bus around for writes
system.mem_ctrls.wrPerTurnAround::samples            4                       # Writes before turning the bus around for reads
system.mem_ctrls.wrPerTurnAround::mean             16                       # Writes before turning the bus around for reads
system.mem_ctrls.wrPerTurnAround::gmean     16.000000                       # Writes before turning the bus around for reads
system.mem_ctrls.wrPerTurnAround::16                4    100.00%    100.00% # Writes before turning the bus around for reads
system.mem_ctrls.wrPerTurnAround::total             4                       # Writes before turning the bus around for reads
system.mem_ctrls.bytesReadDRAM                  37120                       # Total number of bytes read from DRAM
system.mem_ctrls.bytesReadWrQ                     704                       # Total number of bytes read from write queue
system.mem_ctrls.bytesWritten                    4096                       # Total number of bytes written to DRAM
system.mem_ctrls.bytesReadSys                   37824                       # Total read bytes from the system interface side
system.mem_ctrls.bytesWrittenSys                 5952                       # Total written bytes from the system interface side
system.mem_ctrls.avgRdBW                       850.17                       # Average DRAM read bandwidth in MiByte/s
system.mem_ctrls.avgWrBW                        93.81                       # Average achieved write bandwidth in MiByte/s
system.mem_ctrls.avgRdBWSys                    866.29                       # Average system read bandwidth in MiByte/s
system.mem_ctrls.avgWrBWSys                    136.32                       # Average system write bandwidth in MiByte/s
system.mem_ctrls.peakBW                      12800.00                       # Theoretical peak bandwidth in MiByte/s
system.mem_ctrls.busUtil                         7.37                       # Data bus utilization in percentage
system.mem_ctrls.busUtilRead                     6.64                       # Data bus utilization in percentage for reads
system.mem_ctrls.busUtilWrite                    0.73                       # Data bus utilization in percentage for writes
system.mem_ctrls.totGap                      43603500                       # Total gap between requests
system.mem_ctrls.avgGap                      63747.81                       # Average gap between requests
system.mem_ctrls.masterReadBytes::.cpu.inst        26880                       # Per-master bytes read from memory
system.mem_ctrls.masterReadBytes::.cpu.data        10240                       # Per-master bytes read from memory
system.mem_ctrls.masterWriteBytes::.writebacks         4096                       # Per-master bytes write to memory
system.mem_ctrls.masterReadRate::.cpu.inst 615638312.491411209106                       # Per-master bytes read from memory rate (Bytes/sec)
system.mem_ctrls.masterReadRate::.cpu.data 234528880.949109047651                       # Per-master bytes read from memory rate (Bytes/sec)
system.mem_ctrls.masterWriteRate::.writebacks 93811552.379643619061                       # Per-master bytes write to memory rate (Bytes/sec)
system.mem_ctrls.masterReadAccesses::.cpu.inst          431                       # Per-master read serviced memory accesses
system.mem_ctrls.masterReadAccesses::.cpu.data          160                       # Per-master read serviced memory accesses
system.mem_ctrls.masterWriteAccesses::.writebacks           93                       # Per-master write serviced memory accesses
system.mem_ctrls.masterReadTotalLat::.cpu.inst     10783000                       # Per-master read total memory access latency
system.mem_ctrls.masterReadTotalLat::.cpu.data      4091000                       # Per-master read total memory access latency
system.mem_ctrls.masterWriteTotalLat::.writebacks    419749500                       # Per-master write total memory access latency
system.mem_ctrls.masterReadAvgLat::.cpu.inst     25018.56                       # Per-master read average memory access latency
system.mem_ctrls.masterReadAvgLat::.cpu.data     25568.75                       # Per-master read average memory access latency
system.mem_ctrls.masterWriteAvgLat::.writebacks   4513435.48                       # Per-master write average memory access latency
system.mem_ctrls.pageHitRate                    77.27                       # Row buffer hit rate, read and write combined
system.mem_ctrls.rank1.actEnergy               349860                       # Energy for activate commands per rank (pJ)
system.mem_ctrls.rank1.preEnergy               170775                       # Energy for precharge commands per rank (pJ)
system.mem_ctrls.rank1.readEnergy             1549380                       # Energy for read commands per rank (pJ)
system.mem_ctrls.rank1.writeEnergy              83520                       # Energy for write commands per rank (pJ)
system.mem_ctrls.rank1.refreshEnergy     3073200.000000                       # Energy for refresh commands per rank (pJ)
system.mem_ctrls.rank1.actBackEnergy         18247980                       # Energy for active background per rank (pJ)
system.mem_ctrls.rank1.preBackEnergy          1399680                       # Energy for precharge background per rank (pJ)
system.mem_ctrls.rank1.actPowerDownEnergy            0                       # Energy for active power-down per rank (pJ)
system.mem_ctrls.rank1.prePowerDownEnergy            0                       # Energy for precharge power-down per rank (pJ)
system.mem_ctrls.rank1.selfRefreshEnergy            0                       # Energy for self refresh per rank (pJ)
system.mem_ctrls.rank1.totalEnergy           24874395                       # Total energy per rank (pJ)
system.mem_ctrls.rank1.averagePower        569.703518                       # Core power per rank (mW)
system.mem_ctrls.rank1.totalIdleTime                0                       # Total Idle time Per DRAM Rank
system.mem_ctrls.rank1.memoryStateTime::IDLE      3505750                       # Time in different power states
system.mem_ctrls.rank1.memoryStateTime::REF      1300000                       # Time in different power states
system.mem_ctrls.rank1.memoryStateTime::SREF            0                       # Time in different power states
system.mem_ctrls.rank1.memoryStateTime::PRE_PDN            0                       # Time in different power states
system.mem_ctrls.rank1.memoryStateTime::ACT     38856250                       # Time in different power states
system.mem_ctrls.rank1.memoryStateTime::ACT_PDN            0                       # Time in different power states
system.mem_ctrls.rank0.actEnergy               535500                       # Energy for activate commands per rank (pJ)
system.mem_ctrls.rank0.preEnergy               258060                       # Energy for precharge commands per rank (pJ)
system.mem_ctrls.rank0.readEnergy             2591820                       # Energy for read commands per rank (pJ)
system.mem_ctrls.rank0.writeEnergy             250560                       # Energy for write commands per rank (pJ)
system.mem_ctrls.rank0.refreshEnergy     3073200.000000                       # Energy for refresh commands per rank (pJ)
system.mem_ctrls.rank0.actBackEnergy         18862440                       # Energy for active background per rank (pJ)
system.mem_ctrls.rank0.preBackEnergy           882240                       # Energy for precharge background per rank (pJ)
system.mem_ctrls.rank0.actPowerDownEnergy            0                       # Energy for active power-down per rank (pJ)
system.mem_ctrls.rank0.prePowerDownEnergy            0                       # Energy for precharge power-down per rank (pJ)
system.mem_ctrls.rank0.selfRefreshEnergy            0                       # Energy for self refresh per rank (pJ)
system.mem_ctrls.rank0.totalEnergy           26453820                       # Total energy per rank (pJ)
system.mem_ctrls.rank0.averagePower        605.877422                       # Core power per rank (mW)
system.mem_ctrls.rank0.totalIdleTime                0                       # Total Idle time Per DRAM Rank
system.mem_ctrls.rank0.memoryStateTime::IDLE      2130250                       # Time in different power states
system.mem_ctrls.rank0.memoryStateTime::REF      1300000                       # Time in different power states
system.mem_ctrls.rank0.memoryStateTime::SREF            0                       # Time in different power states
system.mem_ctrls.rank0.memoryStateTime::PRE_PDN            0                       # Time in different power states
system.mem_ctrls.rank0.memoryStateTime::ACT     40231750                       # Time in different power states
system.mem_ctrls.rank0.memoryStateTime::ACT_PDN            0                       # Time in different power states
system.cpu_clk_domain.clock                       500                       # Clock period in ticks
system.cpu.pwrStateResidencyTicks::ON        43662000                       # Cumulative time (in ticks) in various power states
system.cpu.icache.pwrStateResidencyTicks::UNDEFINED     43662000                       # Cumulative time (in ticks) in various power states
system.cpu.icache.demand_hits::.cpu.inst         7981                       # number of demand (read+write) hits
system.cpu.icache.demand_hits::total             7981                       # number of demand (read+write) hits
system.cpu.icache.overall_hits::.cpu.inst         7981                       # number of overall hits
system.cpu.icache.overall_hits::total            7981                       # number of overall hits
system.cpu.icache.demand_misses::.cpu.inst          431                       # number of demand (read+write) misses
system.cpu.icache.demand_misses::total            431                       # number of demand (read+write) misses
system.cpu.icache.overall_misses::.cpu.inst          431                       # number of overall misses
system.cpu.icache.overall_misses::total           431                       # number of overall misses
system.cpu.icache.demand_miss_latency::.cpu.inst     24806500                       # number of demand (read+write) miss cycles
system.cpu.icache.demand_miss_latency::total     24806500                       # number of demand (read+write) miss cycles
system.cpu.icache.overall_miss_latency::.cpu.inst     24806500                       # number of overall miss cycles
system.cpu.icache.overall_miss_latency::total     24806500                       # number of overall miss cycles
system.cpu.icache.demand_accesses::.cpu.inst         8412                       # number of demand (read+write) accesses
system.cpu.icache.demand_accesses::total         8412                       # number of demand (read+write) accesses
system.cpu.icache.overall_accesses::.cpu.inst         8412                       # number of overall (read+write) accesses
system.cpu.icache.overall_accesses::total         8412                       # number of overall (read+write) accesses
system.cpu.icache.demand_miss_rate::.cpu.inst     0.051236                       # miss rate for demand accesses
system.cpu.icache.demand_miss_rate::total     0.051236                       # miss rate for demand accesses
system.cpu.icache.overall_miss_rate::.cpu.inst     0.051236                       # miss rate for overall accesses
system.cpu.icache.overall_miss_rate::total     0.051236                       # miss rate for overall accesses
system.cpu.icache.demand_avg_miss_latency::.cpu.inst 57555.684455                       # average overall miss latency
system.cpu.icache.demand_avg_miss_latency::total 57555.684455                       # average overall miss latency
system.cpu.icache.overall_avg_miss_latency::.cpu.inst 57555.684455                       # average overall miss latency
system.cpu.icache.overall_avg_miss_latency::total 57555.684455                       # average overall miss latency
system.cpu.icache.blocked_cycles::no_mshrs            0                       # number of cycles access was blocked
system.cpu.icache.blocked_cycles::no_targets            0                       # number of cycles access was blocked
system.cpu.icache.blocked::no_mshrs                 0                       # number of cycles access was blocked
system.cpu.icache.blocked::no_targets               0                       # number of cycles access was blocked
system.cpu.icache.avg_blocked_cycles::no_mshrs          nan                       # average number of cycles each access was blocked
system.cpu.icache.avg_blocked_cycles::no_targets          nan                       # average number of cycles each access was blocked
system.cpu.icache.writebacks::.writebacks           95                       # number of writebacks
system.cpu.icache.writebacks::total                95                       # number of writebacks
system.cpu.icache.demand_mshr_misses::.cpu.inst          431                       # number of demand (read+write) MSHR misses
system.cpu.icache.demand_mshr_misses::total          431                       # number of demand (read+write) MSHR misses
system.cpu.icache.overall_mshr_misses::.cpu.inst          431                       # number of overall MSHR misses
system.cpu.icache.overall_mshr_misses::total          431                       # number of overall MSHR misses
system.cpu.icache.demand_mshr_miss_latency::.cpu.inst     24375500                       # number of demand (read+write) MSHR miss cycles
system.cpu.icache.demand_mshr_miss_latency::total     24375500                       # number of demand (read+write) MSHR miss cycles
system.cpu.icache.overall_mshr_miss_latency::.cpu.inst     24375500                       # number of overall MSHR miss cycles
system.cpu.icache.overall_mshr_miss_latency::total     24375500                       # number of overall MSHR miss cycles
system.cpu.icache.demand_mshr_miss_rate::.cpu.inst     0.051236                       # mshr miss rate for demand accesses
system.cpu.icache.demand_mshr_miss_rate::total     0.051236                       # mshr miss rate for demand accesses
system.cpu.icache.overall_mshr_miss_rate::.cpu.inst     0.051236                       # mshr miss rate for overall accesses
system.cpu.icache.overall_mshr_miss_rate::total     0.051236                       # mshr miss rate for overall accesses
system.cpu.icache.demand_avg_mshr_miss_latency::.cpu.inst 56555.684455                       # average overall mshr miss latency
system.cpu.icache.demand_avg_mshr_miss_latency::total 56555.684455                       # average overall mshr miss latency
system.cpu.icache.overall_avg_mshr_miss_latency::.cpu.inst 56555.684455                       # average overall mshr miss latency
system.cpu.icache.overall_avg_mshr_miss_latency::total 56555.684455                       # average overall mshr miss latency
system.cpu.icache.replacements                     95                       # number of replacements
system.cpu.icache.ReadReq_hits::.cpu.inst         7981                       # number of ReadReq hits
system.cpu.icache.ReadReq_hits::total            7981                       # number of ReadReq hits
system.cpu.icache.ReadReq_misses::.cpu.inst          431                       # number of ReadReq misses
system.cpu.icache.ReadReq_misses::total           431                       # number of ReadReq misses
system.cpu.icache.ReadReq_miss_latency::.cpu.inst     24806500                       # number of ReadReq miss cycles
system.cpu.icache.ReadReq_miss_latency::total     24806500                       # number of ReadReq miss cycles
system.cpu.icache.ReadReq_accesses::.cpu.inst         8412                       # number of ReadReq accesses(hits+misses)
system.cpu.icache.ReadReq_accesses::total         8412                       # number of ReadReq accesses(hits+misses)
system.cpu.icache.ReadReq_miss_rate::.cpu.inst     0.051236                       # miss rate for ReadReq accesses
system.cpu.icache.ReadReq_miss_rate::total     0.051236                       # miss rate for ReadReq accesses
system.cpu.icache.ReadReq_avg_miss_latency::.cpu.inst 57555.684455                       # average ReadReq miss latency
system.cpu.icache.ReadReq_avg_miss_latency::total 57555.684455                       # average ReadReq miss latency
system.cpu.icache.ReadReq_mshr_misses::.cpu.inst          431                       # number of ReadReq MSHR misses
system.cpu.icache.ReadReq_mshr_misses::total          431                       # number of ReadReq MSHR misses
system.cpu.icache.ReadReq_mshr_miss_latency::.cpu.inst     24375500                       # number of ReadReq MSHR miss cycles
system.cpu.icache.ReadReq_mshr_miss_latency::total     24375500                       # number of ReadReq MSHR miss cycles
system.cpu.icache.ReadReq_mshr_miss_rate::.cpu.inst     0.051236                       # mshr miss rate for ReadReq accesses
system.cpu.icache.ReadReq_mshr_miss_rate::total     0.051236                       # mshr miss rate for ReadReq accesses
system.cpu.icache.ReadReq_avg_mshr_miss_latency::.cpu.inst 56555.684455                       # average ReadReq mshr miss latency
system.cpu.icache.ReadReq_avg_mshr_miss_latency::total 56555.684455                       # average ReadReq mshr miss latency
system.cpu.icache.tags.pwrStateResidencyTicks::UNDEFINED     43662000                       # Cumulative time (in ticks) in various power states
system.cpu.icache.tags.tagsinuse           208.040725                       # Cycle average of tags in use
system.cpu.icache.tags.total_refs                8412                       # Total number of references to valid blocks.
system.cpu.icache.tags.sampled_refs               431                       # Sample count of references to valid blocks.
system.cpu.icache.tags.avg_refs             19.517401                       # Average number of references to valid blocks.
system.cpu.icache.tags.warmup_cycle             77000                       # Cycle when the warmup percentage was hit.
system.cpu.icache.tags.occ_blocks::.cpu.inst   208.040725                       # Average occupied blocks per requestor
system.cpu.icache.tags.occ_percent::.cpu.inst     0.406330                       # Average percentage of cache occupancy
system.cpu.icache.tags.occ_percent::total     0.406330                       # Average percentage of cache occupancy
system.cpu.icache.tags.occ_task_id_blocks::1024          336                       # Occupied blocks per task id
system.cpu.icache.tags.age_task_id_blocks_1024::0           45                       # Occupied blocks per task id
system.cpu.icache.tags.age_task_id_blocks_1024::1          291                       # Occupied blocks per task id
system.cpu.icache.tags.occ_task_id_percent::1024     0.656250                       # Percentage of cache occupancy per task id
system.cpu.icache.tags.tag_accesses             17255                       # Number of tag accesses
system.cpu.icache.tags.data_accesses            17255                       # Number of data accesses
system.cpu.dtb.walker.pwrStateResidencyTicks::UNDEFINED     43662000                       # Cumulative time (in ticks) in various power states
system.cpu.dtb.stage2_mmu.stage2_tlb.walker.pwrStateResidencyTicks::UNDEFINED     43662000                       # Cumulative time (in ticks) in various power states
system.cpu.dcache.pwrStateResidencyTicks::UNDEFINED     43662000                       # Cumulative time (in ticks) in various power states
system.cpu.dcache.demand_hits::.cpu.data         7595                       # number of demand (read+write) hits
system.cpu.dcache.demand_hits::total             7595                       # number of demand (read+write) hits
system.cpu.dcache.overall_hits::.cpu.data         7613                       # number of overall hits
system.cpu.dcache.overall_hits::total            7613                       # number of overall hits
system.cpu.dcache.demand_misses::.cpu.data          201                       # number of demand (read+write) misses
system.cpu.dcache.demand_misses::total            201                       # number of demand (read+write) misses
system.cpu.dcache.overall_misses::.cpu.data          216                       # number of overall misses
system.cpu.dcache.overall_misses::total           216                       # number of overall misses
system.cpu.dcache.demand_miss_latency::.cpu.data     11638500                       # number of demand (read+write) miss cycles
system.cpu.dcache.demand_miss_latency::total     11638500                       # number of demand (read+write) miss cycles
system.cpu.dcache.overall_miss_latency::.cpu.data     11638500                       # number of overall miss cycles
system.cpu.dcache.overall_miss_latency::total     11638500                       # number of overall miss cycles
system.cpu.dcache.demand_accesses::.cpu.data         7796                       # number of demand (read+write) accesses
system.cpu.dcache.demand_accesses::total         7796                       # number of demand (read+write) accesses
system.cpu.dcache.overall_accesses::.cpu.data         7829                       # number of overall (read+write) accesses
system.cpu.dcache.overall_accesses::total         7829                       # number of overall (read+write) accesses
system.cpu.dcache.demand_miss_rate::.cpu.data     0.025782                       # miss rate for demand accesses
system.cpu.dcache.demand_miss_rate::total     0.025782                       # miss rate for demand accesses
system.cpu.dcache.overall_miss_rate::.cpu.data     0.027590                       # miss rate for overall accesses
system.cpu.dcache.overall_miss_rate::total     0.027590                       # miss rate for overall accesses
system.cpu.dcache.demand_avg_miss_latency::.cpu.data 57902.985075                       # average overall miss latency
system.cpu.dcache.demand_avg_miss_latency::total 57902.985075                       # average overall miss latency
system.cpu.dcache.overall_avg_miss_latency::.cpu.data 53881.944444                       # average overall miss latency
system.cpu.dcache.overall_avg_miss_latency::total 53881.944444                       # average overall miss latency
system.cpu.dcache.blocked_cycles::no_mshrs            0                       # number of cycles access was blocked
system.cpu.dcache.blocked_cycles::no_targets            0                       # number of cycles access was blocked
system.cpu.dcache.blocked::no_mshrs                 0                       # number of cycles access was blocked
system.cpu.dcache.blocked::no_targets               0                       # number of cycles access was blocked
system.cpu.dcache.avg_blocked_cycles::no_mshrs          nan                       # average number of cycles each access was blocked
system.cpu.dcache.avg_blocked_cycles::no_targets          nan                       # average number of cycles each access was blocked
system.cpu.dcache.demand_mshr_hits::.cpu.data           53                       # number of demand (read+write) MSHR hits
system.cpu.dcache.demand_mshr_hits::total           53                       # number of demand (read+write) MSHR hits
system.cpu.dcache.overall_mshr_hits::.cpu.data           53                       # number of overall MSHR hits
system.cpu.dcache.overall_mshr_hits::total           53                       # number of overall MSHR hits
system.cpu.dcache.demand_mshr_misses::.cpu.data          148                       # number of demand (read+write) MSHR misses
system.cpu.dcache.demand_mshr_misses::total          148                       # number of demand (read+write) MSHR misses
system.cpu.dcache.overall_mshr_misses::.cpu.data          158                       # number of overall MSHR misses
system.cpu.dcache.overall_mshr_misses::total          158                       # number of overall MSHR misses
system.cpu.dcache.demand_mshr_miss_latency::.cpu.data      8484500                       # number of demand (read+write) MSHR miss cycles
system.cpu.dcache.demand_mshr_miss_latency::total      8484500                       # number of demand (read+write) MSHR miss cycles
system.cpu.dcache.overall_mshr_miss_latency::.cpu.data      9090500                       # number of overall MSHR miss cycles
system.cpu.dcache.overall_mshr_miss_latency::total      9090500                       # number of overall MSHR miss cycles
system.cpu.dcache.demand_mshr_miss_rate::.cpu.data     0.018984                       # mshr miss rate for demand accesses
system.cpu.dcache.demand_mshr_miss_rate::total     0.018984                       # mshr miss rate for demand accesses
system.cpu.dcache.overall_mshr_miss_rate::.cpu.data     0.020181                       # mshr miss rate for overall accesses
system.cpu.dcache.overall_mshr_miss_rate::total     0.020181                       # mshr miss rate for overall accesses
system.cpu.dcache.demand_avg_mshr_miss_latency::.cpu.data 57327.702703                       # average overall mshr miss latency
system.cpu.dcache.demand_avg_mshr_miss_latency::total 57327.702703                       # average overall mshr miss latency
system.cpu.dcache.overall_avg_mshr_miss_latency::.cpu.data 57534.810127                       # average overall mshr miss latency
system.cpu.dcache.overall_avg_mshr_miss_latency::total 57534.810127                       # average overall mshr miss latency
system.cpu.dcache.replacements                      0                       # number of replacements
system.cpu.dcache.ReadReq_hits::.cpu.data         4273                       # number of ReadReq hits
system.cpu.dcache.ReadReq_hits::total            4273                       # number of ReadReq hits
system.cpu.dcache.ReadReq_misses::.cpu.data           87                       # number of ReadReq misses
system.cpu.dcache.ReadReq_misses::total            87                       # number of ReadReq misses
system.cpu.dcache.ReadReq_miss_latency::.cpu.data      5016000                       # number of ReadReq miss cycles
system.cpu.dcache.ReadReq_miss_latency::total      5016000                       # number of ReadReq miss cycles
system.cpu.dcache.ReadReq_accesses::.cpu.data         4360                       # number of ReadReq accesses(hits+misses)
system.cpu.dcache.ReadReq_accesses::total         4360                       # number of ReadReq accesses(hits+misses)
system.cpu.dcache.ReadReq_miss_rate::.cpu.data     0.019954                       # miss rate for ReadReq accesses
system.cpu.dcache.ReadReq_miss_rate::total     0.019954                       # miss rate for ReadReq accesses
system.cpu.dcache.ReadReq_avg_miss_latency::.cpu.data 57655.172414                       # average ReadReq miss latency
system.cpu.dcache.ReadReq_avg_miss_latency::total 57655.172414                       # average ReadReq miss latency
system.cpu.dcache.ReadReq_mshr_hits::.cpu.data            7                       # number of ReadReq MSHR hits
system.cpu.dcache.ReadReq_mshr_hits::total            7                       # number of ReadReq MSHR hits
system.cpu.dcache.ReadReq_mshr_misses::.cpu.data           80                       # number of ReadReq MSHR misses
system.cpu.dcache.ReadReq_mshr_misses::total           80                       # number of ReadReq MSHR misses
system.cpu.dcache.ReadReq_mshr_miss_latency::.cpu.data      4543000                       # number of ReadReq MSHR miss cycles
system.cpu.dcache.ReadReq_mshr_miss_latency::total      4543000                       # number of ReadReq MSHR miss cycles
system.cpu.dcache.ReadReq_mshr_miss_rate::.cpu.data     0.018349                       # mshr miss rate for ReadReq accesses
system.cpu.dcache.ReadReq_mshr_miss_rate::total     0.018349                       # mshr miss rate for ReadReq accesses
system.cpu.dcache.ReadReq_avg_mshr_miss_latency::.cpu.data 56787.500000                       # average ReadReq mshr miss latency
system.cpu.dcache.ReadReq_avg_mshr_miss_latency::total 56787.500000                       # average ReadReq mshr miss latency
system.cpu.dcache.WriteReq_hits::.cpu.data         3322                       # number of WriteReq hits
system.cpu.dcache.WriteReq_hits::total           3322                       # number of WriteReq hits
system.cpu.dcache.WriteReq_misses::.cpu.data          114                       # number of WriteReq misses
system.cpu.dcache.WriteReq_misses::total          114                       # number of WriteReq misses
system.cpu.dcache.WriteReq_miss_latency::.cpu.data      6622500                       # number of WriteReq miss cycles
system.cpu.dcache.WriteReq_miss_latency::total      6622500                       # number of WriteReq miss cycles
system.cpu.dcache.WriteReq_accesses::.cpu.data         3436                       # number of WriteReq accesses(hits+misses)
system.cpu.dcache.WriteReq_accesses::total         3436                       # number of WriteReq accesses(hits+misses)
system.cpu.dcache.WriteReq_miss_rate::.cpu.data     0.033178                       # miss rate for WriteReq accesses
system.cpu.dcache.WriteReq_miss_rate::total     0.033178                       # miss rate for WriteReq accesses
system.cpu.dcache.WriteReq_avg_miss_latency::.cpu.data 58092.105263                       # average WriteReq miss latency
system.cpu.dcache.WriteReq_avg_miss_latency::total 58092.105263                       # average WriteReq miss latency
system.cpu.dcache.WriteReq_mshr_hits::.cpu.data           46                       # number of WriteReq MSHR hits
system.cpu.dcache.WriteReq_mshr_hits::total           46                       # number of WriteReq MSHR hits
system.cpu.dcache.WriteReq_mshr_misses::.cpu.data           68                       # number of WriteReq MSHR misses
system.cpu.dcache.WriteReq_mshr_misses::total           68                       # number of WriteReq MSHR misses
system.cpu.dcache.WriteReq_mshr_miss_latency::.cpu.data      3941500                       # number of WriteReq MSHR miss cycles
system.cpu.dcache.WriteReq_mshr_miss_latency::total      3941500                       # number of WriteReq MSHR miss cycles
system.cpu.dcache.WriteReq_mshr_miss_rate::.cpu.data     0.019790                       # mshr miss rate for WriteReq accesses
system.cpu.dcache.WriteReq_mshr_miss_rate::total     0.019790                       # mshr miss rate for WriteReq accesses
system.cpu.dcache.WriteReq_avg_mshr_miss_latency::.cpu.data 57963.235294                       # average WriteReq mshr miss latency
system.cpu.dcache.WriteReq_avg_mshr_miss_latency::total 57963.235294                       # average WriteReq mshr miss latency
system.cpu.dcache.SoftPFReq_hits::.cpu.data           18                       # number of SoftPFReq hits
system.cpu.dcache.SoftPFReq_hits::total            18                       # number of SoftPFReq hits
system.cpu.dcache.SoftPFReq_misses::.cpu.data           15                       # number of SoftPFReq misses
system.cpu.dcache.SoftPFReq_misses::total           15                       # number of SoftPFReq misses
system.cpu.dcache.SoftPFReq_accesses::.cpu.data           33                       # number of SoftPFReq accesses(hits+misses)
system.cpu.dcache.SoftPFReq_accesses::total           33                       # number of SoftPFReq accesses(hits+misses)
system.cpu.dcache.SoftPFReq_miss_rate::.cpu.data     0.454545                       # miss rate for SoftPFReq accesses
system.cpu.dcache.SoftPFReq_miss_rate::total     0.454545                       # miss rate for SoftPFReq accesses
system.cpu.dcache.SoftPFReq_mshr_misses::.cpu.data           10                       # number of SoftPFReq MSHR misses
system.cpu.dcache.SoftPFReq_mshr_misses::total           10                       # number of SoftPFReq MSHR misses
system.cpu.dcache.SoftPFReq_mshr_miss_latency::.cpu.data       606000                       # number of SoftPFReq MSHR miss cycles
system.cpu.dcache.SoftPFReq_mshr_miss_latency::total       606000                       # number of SoftPFReq MSHR miss cycles
system.cpu.dcache.SoftPFReq_mshr_miss_rate::.cpu.data     0.303030                       # mshr miss rate for SoftPFReq accesses
system.cpu.dcache.SoftPFReq_mshr_miss_rate::total     0.303030                       # mshr miss rate for SoftPFReq accesses
system.cpu.dcache.SoftPFReq_avg_mshr_miss_latency::.cpu.data        60600                       # average SoftPFReq mshr miss latency
system.cpu.dcache.SoftPFReq_avg_mshr_miss_latency::total        60600                       # average SoftPFReq mshr miss latency
system.cpu.dcache.LoadLockedReq_hits::.cpu.data           36                       # number of LoadLockedReq hits
system.cpu.dcache.LoadLockedReq_hits::total           36                       # number of LoadLockedReq hits
system.cpu.dcache.LoadLockedReq_misses::.cpu.data            2                       # number of LoadLockedReq misses
system.cpu.dcache.LoadLockedReq_misses::total            2                       # number of LoadLockedReq misses
system.cpu.dcache.LoadLockedReq_miss_latency::.cpu.data       103000                       # number of LoadLockedReq miss cycles
system.cpu.dcache.LoadLockedReq_miss_latency::total       103000                       # number of LoadLockedReq miss cycles
system.cpu.dcache.LoadLockedReq_accesses::.cpu.data           38                       # number of LoadLockedReq accesses(hits+misses)
system.cpu.dcache.LoadLockedReq_accesses::total           38                       # number of LoadLockedReq accesses(hits+misses)
system.cpu.dcache.LoadLockedReq_miss_rate::.cpu.data     0.052632                       # miss rate for LoadLockedReq accesses
system.cpu.dcache.LoadLockedReq_miss_rate::total     0.052632                       # miss rate for LoadLockedReq accesses
system.cpu.dcache.LoadLockedReq_avg_miss_latency::.cpu.data        51500                       # average LoadLockedReq miss latency
system.cpu.dcache.LoadLockedReq_avg_miss_latency::total        51500                       # average LoadLockedReq miss latency
system.cpu.dcache.LoadLockedReq_mshr_misses::.cpu.data            2                       # number of LoadLockedReq MSHR misses
system.cpu.dcache.LoadLockedReq_mshr_misses::total            2                       # number of LoadLockedReq MSHR misses
system.cpu.dcache.LoadLockedReq_mshr_miss_latency::.cpu.data       101000                       # number of LoadLockedReq MSHR miss cycles
system.cpu.dcache.LoadLockedReq_mshr_miss_latency::total       101000                       # number of LoadLockedReq MSHR miss cycles
system.cpu.dcache.LoadLockedReq_mshr_miss_rate::.cpu.data     0.052632                       # mshr miss rate for LoadLockedReq accesses
system.cpu.dcache.LoadLockedReq_mshr_miss_rate::total     0.052632                       # mshr miss rate for LoadLockedReq accesses
system.cpu.dcache.LoadLockedReq_avg_mshr_miss_latency::.cpu.data        50500                       # average LoadLockedReq mshr miss latency
system.cpu.dcache.LoadLockedReq_avg_mshr_miss_latency::total        50500                       # average LoadLockedReq mshr miss latency
system.cpu.dcache.StoreCondReq_hits::.cpu.data           38                       # number of StoreCondReq hits
system.cpu.dcache.StoreCondReq_hits::total           38                       # number of StoreCondReq hits
system.cpu.dcache.StoreCondReq_accesses::.cpu.data           38                       # number of StoreCondReq accesses(hits+misses)
system.cpu.dcache.StoreCondReq_accesses::total           38                       # number of StoreCondReq accesses(hits+misses)
system.cpu.dcache.tags.pwrStateResidencyTicks::UNDEFINED     43662000                       # Cumulative time (in ticks) in various power states
system.cpu.dcache.tags.tagsinuse           106.413656                       # Cycle average of tags in use
system.cpu.dcache.tags.total_refs                7847                       # Total number of references to valid blocks.
system.cpu.dcache.tags.sampled_refs               160                       # Sample count of references to valid blocks.
system.cpu.dcache.tags.avg_refs             49.043750                       # Average number of references to valid blocks.
system.cpu.dcache.tags.warmup_cycle            145000                       # Cycle when the warmup percentage was hit.
system.cpu.dcache.tags.occ_blocks::.cpu.data   106.413656                       # Average occupied blocks per requestor
system.cpu.dcache.tags.occ_percent::.cpu.data     0.103920                       # Average percentage of cache occupancy
system.cpu.dcache.tags.occ_percent::total     0.103920                       # Average percentage of cache occupancy
system.cpu.dcache.tags.occ_task_id_blocks::1024          160                       # Occupied blocks per task id
system.cpu.dcache.tags.age_task_id_blocks_1024::0           11                       # Occupied blocks per task id
system.cpu.dcache.tags.age_task_id_blocks_1024::1          149                       # Occupied blocks per task id
system.cpu.dcache.tags.occ_task_id_percent::1024     0.156250                       # Percentage of cache occupancy per task id
system.cpu.dcache.tags.tag_accesses             15970                       # Number of tag accesses
system.cpu.dcache.tags.data_accesses            15970                       # Number of data accesses
system.cpu.itb.walker.pwrStateResidencyTicks::UNDEFINED     43662000                       # Cumulative time (in ticks) in various power states
system.cpu.itb.stage2_mmu.stage2_tlb.walker.pwrStateResidencyTicks::UNDEFINED     43662000                       # Cumulative time (in ticks) in various power states

---------- End Simulation Statistics   ----------
